input/IEEE39busPsse30.raw
 0, 100.0/RAWD VER 30 EXPORT BY PSAT
NEW ENGLAND TEST SYSTEM, 39 BUSES, 9 GENERATORS
IEEE 39-BUS TEST SYSTEM
       1,'1           ',   1.00,1,          0.000,          0.000,   1,   1,1.05178,  -8.5720,   1,/* [                                ] */
       2,'2           ',   1.00,1,          0.000,          0.000,   1,   1,1.05987,  -6.1285,   1,/* [                                ] */
       3,'3           ',   1.00,1,          0.000,          0.000,   1,   1,1.05655,  -8.9468,   1,/* [                                ] */
       4,'4           ',   1.00,1,          0.000,        100.000,   1,   1,1.05919,  -9.7788,   1,/* [                                ] */
       5,'5           ',   1.00,1,          0.000,        200.000,   1,   1,1.07359,  -8.7675,   1,/* [                                ] */
       6,'6           ',   1.00,1,          0.000,          0.000,   1,   1,1.07428,  -8.1428,   1,/* [                                ] */
       7,'7           ',   1.00,1,          0.000,          0.000,   1,   1,1.06115, -10.0765,   1,/* [                                ] */
       8,'8           ',   1.00,1,          0.000,          0.000,   1,   1,1.05858, -10.5180,   1,/* [                                ] */
       9,'9           ',   1.00,1,          0.000,          0.000,   1,   1,1.05402, -10.2767,   1,/* [                                ] */
      10,'10          ',   1.00,1,          0.000,          0.000,   1,   1,1.06106,  -5.8687,   1,/* [                                ] */
      11,'11          ',   1.00,1,          0.000,          0.000,   1,   1,1.06429,  -6.6552,   1,/* [                                ] */
      12,'12          ',   1.00,1,          0.000,          0.000,   1,   1,1.04934,  -6.6355,   1,/* [                                ] */
      13,'13          ',   1.00,1,          0.000,          0.000,   1,   1,1.05870,  -6.5196,   1,/* [                                ] */
      14,'14          ',   1.00,1,          0.000,          0.000,   1,   1,1.05614,  -8.0335,   1,/* [                                ] */
      15,'15          ',   1.00,1,          0.000,          0.000,   1,   1,1.04089,  -8.3098,   1,/* [                                ] */
      16,'16          ',   1.00,1,          0.000,          0.000,   1,   1,1.04853,  -6.9053,   1,/* [                                ] */
      17,'17          ',   1.00,1,          0.000,          0.000,   1,   1,1.05174,  -7.8681,   1,/* [                                ] */
      18,'18          ',   1.00,1,          0.000,          0.000,   1,   1,1.05233,  -8.6927,   1,/* [                                ] */
      19,'19          ',   1.00,1,          0.000,          0.000,   1,   1,1.05599,  -2.3321,   1,/* [                                ] */
      20,'20          ',   1.00,1,          0.000,          0.000,   1,   1,0.99422,  -3.7235,   1,/* [                                ] */
      21,'21          ',   1.00,1,          0.000,          0.000,   1,   1,1.04355,  -4.5464,   1,/* [                                ] */
      22,'22          ',   1.00,1,          0.000,          0.000,   1,   1,1.05611,  -0.1570,   1,/* [                                ] */
      23,'23          ',   1.00,1,          0.000,          0.000,   1,   1,1.05132,  -0.3532,   1,/* [                                ] */
      24,'24          ',   1.00,1,          0.000,          0.000,   1,   1,1.05258,  -6.7854,   1,/* [                                ] */
      25,'25          ',   1.00,1,          0.000,          0.000,   1,   1,1.06582,  -4.6949,   1,/* [                                ] */
      26,'26          ',   1.00,1,          0.000,          0.000,   1,   1,1.06229,  -5.9723,   1,/* [                                ] */
      27,'27          ',   1.00,1,          0.000,          0.000,   1,   1,1.05173,  -7.9718,   1,/* [                                ] */
      28,'28          ',   1.00,1,          0.000,          0.000,   1,   1,1.05541,  -2.4902,   1,/* [                                ] */
      29,'29          ',   1.00,1,          0.000,          0.000,   1,   1,1.05357,   0.2533,   1,/* [                                ] */
      30,'30          ',   1.00,2,          0.000,          0.000,   1,   1,1.04750,  -3.7342,   1,/* [                                ] */
      31,'31          ',   1.00,3,          0.000,          0.000,   1,   1,0.98200,  -1.5868,   1,/* [                                ] */
      32,'32          ',   1.00,2,          0.000,          0.000,   1,   1,0.98310,   1.7944,   1,/* [                                ] */
      33,'33          ',   1.00,2,          0.000,          0.000,   1,   1,0.99720,   2.8715,   1,/* [                                ] */
      34,'34          ',   1.00,2,          0.000,          0.000,   1,   1,1.01230,   1.4590,   1,/* [                                ] */
      35,'35          ',   1.00,2,          0.000,          0.000,   1,   1,1.04930,   4.7751,   1,/* [                                ] */
      36,'36          ',   1.00,2,          0.000,          0.000,   1,   1,1.06350,   7.4572,   1,/* [                                ] */
      37,'37          ',   1.00,2,          0.000,          0.000,   1,   1,1.02780,   2.0485,   1,/* [                                ] */
      38,'38          ',   1.00,2,          0.000,          0.000,   1,   1,1.02650,   7.3024,   1,/* [                                ] */
      39,'39          ',   1.00,2,          0.000,          0.000,   1,   1,1.03000, -10.0638,   1,/* [                                ] */
0 / END OF BUS DATA, BEGIN LOAD DATA
     1,'1 ',1,   1,   1,     0.000,     0.000,     0.000,     0.000,     0.000,     0.000,   1,/* [                                ] */
     2,'1 ',1,   1,   1,     0.000,     0.000,     0.000,     0.000,     0.000,     0.000,   1,/* [                                ] */
     3,'1 ',1,   1,   1,   322.000,     2.400,     0.000,     0.000,     0.000,     0.000,   1,/* [                                ] */
     4,'1 ',1,   1,   1,   500.000,   184.000,     0.000,     0.000,     0.000,     0.000,   1,/* [                                ] */
     5,'1 ',1,   1,   1,     0.000,     0.000,     0.000,     0.000,     0.000,     0.000,   1,/* [                                ] */
     6,'1 ',1,   1,   1,     0.000,     0.000,     0.000,     0.000,     0.000,     0.000,   1,/* [                                ] */
     7,'1 ',1,   1,   1,   233.800,    84.000,     0.000,     0.000,     0.000,     0.000,   1,/* [                                ] */
     8,'1 ',1,   1,   1,   522.000,   176.000,     0.000,     0.000,     0.000,     0.000,   1,/* [                                ] */
     9,'1 ',1,   1,   1,     0.000,     0.000,     0.000,     0.000,     0.000,     0.000,   1,/* [                                ] */
    10,'1 ',1,   1,   1,     0.000,     0.000,     0.000,     0.000,     0.000,     0.000,   1,/* [                                ] */
    11,'1 ',1,   1,   1,     0.000,     0.000,     0.000,     0.000,     0.000,     0.000,   1,/* [                                ] */
    12,'1 ',1,   1,   1,     7.500,    88.000,     0.000,     0.000,     0.000,     0.000,   1,/* [                                ] */
    13,'1 ',1,   1,   1,     0.000,     0.000,     0.000,     0.000,     0.000,     0.000,   1,/* [                                ] */
    14,'1 ',1,   1,   1,     0.000,     0.000,     0.000,     0.000,     0.000,     0.000,   1,/* [                                ] */
    15,'1 ',1,   1,   1,   320.000,   153.000,     0.000,     0.000,     0.000,     0.000,   1,/* [                                ] */
    16,'1 ',1,   1,   1,   329.400,    32.300,     0.000,     0.000,     0.000,     0.000,   1,/* [                                ] */
    17,'1 ',1,   1,   1,     0.000,     0.000,     0.000,     0.000,     0.000,     0.000,   1,/* [                                ] */
    18,'1 ',1,   1,   1,   158.000,    30.000,     0.000,     0.000,     0.000,     0.000,   1,/* [                                ] */
    19,'1 ',1,   1,   1,     0.000,     0.000,     0.000,     0.000,     0.000,     0.000,   1,/* [                                ] */
    20,'1 ',1,   1,   1,   680.000,   103.000,     0.000,     0.000,     0.000,     0.000,   1,/* [                                ] */
    21,'1 ',1,   1,   1,   274.000,   115.000,     0.000,     0.000,     0.000,     0.000,   1,/* [                                ] */
    22,'1 ',1,   1,   1,     0.000,     0.000,     0.000,     0.000,     0.000,     0.000,   1,/* [                                ] */
    23,'1 ',1,   1,   1,   247.500,    84.600,     0.000,     0.000,     0.000,     0.000,   1,/* [                                ] */
    24,'1 ',1,   1,   1,   308.600,   -92.200,     0.000,     0.000,     0.000,     0.000,   1,/* [                                ] */
    25,'1 ',1,   1,   1,   224.000,    47.200,     0.000,     0.000,     0.000,     0.000,   1,/* [                                ] */
    26,'1 ',1,   1,   1,   139.000,    17.000,     0.000,     0.000,     0.000,     0.000,   1,/* [                                ] */
    27,'1 ',1,   1,   1,   281.000,    75.500,     0.000,     0.000,     0.000,     0.000,   1,/* [                                ] */
    28,'1 ',1,   1,   1,   206.000,    27.600,     0.000,     0.000,     0.000,     0.000,   1,/* [                                ] */
    29,'1 ',1,   1,   1,   283.500,    26.900,     0.000,     0.000,     0.000,     0.000,   1,/* [                                ] */
    31,'1 ',1,   1,   1,     9.200,     4.600,     0.000,     0.000,     0.000,     0.000,   1,/* [                                ] */
    39,'1 ',1,   1,   1,  1104.000,   250.000,     0.000,     0.000,     0.000,     0.000,   1,/* [                                ] */
0 / END OF LOAD DATA, BEGIN GENERATOR DATA
    30,'1 ',   250.00,    83.21,   800.00,  -500.00,1.04750,     0,   100.00,      0.00000,      1.00000,      0.00000,      0.00000,1.00000,1,  100.0,  9999.90,     0.00,   1,1.0000,,,,,,,,/* [                                ] */
    31,'1 ',   571.28,   363.94,   800.00,  -500.00,0.98200,     0,   100.00,      0.00000,      1.00000,      0.00000,      0.00000,1.00000,1,  100.0,  9999.90,     0.00,   1,1.0000,,,,,,,,/* [                                ] */
    32,'1 ',   650.00,     1.53,   800.00,  -500.00,0.98310,     0,   100.00,      0.00000,      1.00000,      0.00000,      0.00000,1.00000,1,  100.0,  9999.90,     0.00,   1,1.0000,,,,,,,,/* [                                ] */
    33,'1 ',   632.00,    69.67,   800.00,  -500.00,0.99720,     0,   100.00,      0.00000,      1.00000,      0.00000,      0.00000,1.00000,1,  100.0,  9999.90,     0.00,   1,1.0000,,,,,,,,/* [                                ] */
    34,'1 ',   508.00,   148.79,   800.00,  -300.00,1.01230,     0,   100.00,      0.00000,      1.00000,      0.00000,      0.00000,1.00000,1,  100.0,  9999.90,     0.00,   1,1.0000,,,,,,,,/* [                                ] */
    35,'1 ',   650.00,   167.04,   800.00,  -500.00,1.04930,     0,   100.00,      0.00000,      1.00000,      0.00000,      0.00000,1.00000,1,  100.0,  9999.90,     0.00,   1,1.0000,,,,,,,,/* [                                ] */
    36,'1 ',   560.00,    75.45,   800.00,  -500.00,1.06350,     0,   100.00,      0.00000,      1.00000,      0.00000,      0.00000,1.00000,1,  100.0,  9999.90,     0.00,   1,1.0000,,,,,,,,/* [                                ] */
    37,'1 ',   540.00,   -35.35,   800.00,  -500.00,1.02780,     0,   100.00,      0.00000,      1.00000,      0.00000,      0.00000,1.00000,1,  100.0,  9999.90,     0.00,   1,1.0000,,,,,,,,/* [                                ] */
    38,'1 ',   830.00,    -0.47,   800.00,  -500.00,1.02650,     0,   100.00,      0.00000,      1.00000,      0.00000,      0.00000,1.00000,1,  100.0,  9999.90,     0.00,   1,1.0000,,,,,,,,/* [                                ] */
    39,'1 ',  1000.00,   -36.49,  1500.00, -1000.00,1.03000,     0,   100.00,      0.00000,      1.00000,      0.00000,      0.00000,1.00000,1,  100.0,  9999.90,     0.00,   1,1.0000,,,,,,,,/* [                                ] */
 0 / END OF GENERATOR DATA, BEGIN BRANCH DATA
       1,       2,'1 ',    0.35000E-02,    0.41100E-01,    0.69870    ,    0.00,    0.00,    1.00,  0.00000,  0.00000,  0.00000,  0.00000,1,   0.00,   1,1.0000,,,,,,,,/* [                                ] */
       1,      39,'1 ',    0.10000E-02,    0.25000E-01,    0.75000    ,    0.00,    0.00,    1.00,  0.00000,  0.00000,  0.00000,  0.00000,1,   0.00,   1,1.0000,,,,,,,,/* [                                ] */
       2,       3,'1 ',    0.13000E-02,    0.15100E-01,    0.25720    ,    0.00,    0.00,    1.00,  0.00000,  0.00000,  0.00000,  0.00000,1,   0.00,   1,1.0000,,,,,,,,/* [                                ] */
       2,      25,'1 ',    0.70000E-02,    0.86000E-02,    0.14600    ,    0.00,    0.00,    1.00,  0.00000,  0.00000,  0.00000,  0.00000,1,   0.00,   1,1.0000,,,,,,,,/* [                                ] */
       3,       4,'1 ',    0.13000E-02,    0.21300E-01,    0.22140    ,    0.00,    0.00,    1.00,  0.00000,  0.00000,  0.00000,  0.00000,1,   0.00,   1,1.0000,,,,,,,,/* [                                ] */
       3,      18,'1 ',    0.11000E-02,    0.13300E-01,    0.21380    ,    0.00,    0.00,    1.00,  0.00000,  0.00000,  0.00000,  0.00000,1,   0.00,   1,1.0000,,,,,,,,/* [                                ] */
       4,       5,'1 ',    0.80000E-03,    0.12800E-01,    0.13420    ,    0.00,    0.00,    1.00,  0.00000,  0.00000,  0.00000,  0.00000,1,   0.00,   1,1.0000,,,,,,,,/* [                                ] */
       4,      14,'1 ',    0.80000E-03,    0.12900E-01,    0.13820    ,    0.00,    0.00,    1.00,  0.00000,  0.00000,  0.00000,  0.00000,1,   0.00,   1,1.0000,,,,,,,,/* [                                ] */
       5,      -6,'1 ',    0.20000E-03,    0.26000E-02,    0.43400E-01,    0.00,    0.00,    1.00,  0.00000,  0.00000,  0.00000,  0.00000,1,   0.00,   1,1.0000,,,,,,,,/* [                                ] */
       5,       8,'1 ',    0.80000E-03,    0.11200E-01,    0.14760    ,    0.00,    0.00,    1.00,  0.00000,  0.00000,  0.00000,  0.00000,1,   0.00,   1,1.0000,,,,,,,,/* [                                ] */
       6,       7,'1 ',    0.60000E-03,    0.92000E-02,    0.11300    ,    0.00,    0.00,    1.00,  0.00000,  0.00000,  0.00000,  0.00000,1,   0.00,   1,1.0000,,,,,,,,/* [                                ] */
       6,      11,'1 ',    0.70000E-03,    0.82000E-02,    0.13890    ,    0.00,    0.00,    1.00,  0.00000,  0.00000,  0.00000,  0.00000,1,   0.00,   1,1.0000,,,,,,,,/* [                                ] */
       7,       8,'1 ',    0.40000E-03,    0.46000E-02,    0.78000E-01,    0.00,    0.00,    1.00,  0.00000,  0.00000,  0.00000,  0.00000,1,   0.00,   1,1.0000,,,,,,,,/* [                                ] */
       8,       9,'1 ',    0.23000E-02,    0.36300E-01,    0.38040    ,    0.00,    0.00,    1.00,  0.00000,  0.00000,  0.00000,  0.00000,1,   0.00,   1,1.0000,,,,,,,,/* [                                ] */
       9,      39,'1 ',    0.10000E-02,    0.25000E-01,     1.2000    ,    0.00,    0.00,    1.00,  0.00000,  0.00000,  0.00000,  0.00000,1,   0.00,   1,1.0000,,,,,,,,/* [                                ] */
      10,      11,'1 ',    0.40000E-03,    0.43000E-02,    0.72900E-01,    0.00,    0.00,    1.00,  0.00000,  0.00000,  0.00000,  0.00000,1,   0.00,   1,1.0000,,,,,,,,/* [                                ] */
      10,      13,'1 ',    0.40000E-03,    0.43000E-02,    0.72900E-01,    0.00,    0.00,    1.00,  0.00000,  0.00000,  0.00000,  0.00000,1,   0.00,   1,1.0000,,,,,,,,/* [                                ] */
      13,      14,'1 ',    0.90000E-03,    0.10100E-01,    0.17230    ,    0.00,    0.00,    1.00,  0.00000,  0.00000,  0.00000,  0.00000,1,   0.00,   1,1.0000,,,,,,,,/* [                                ] */
      14,      15,'1 ',    0.18000E-02,    0.21700E-01,    0.36600    ,    0.00,    0.00,    1.00,  0.00000,  0.00000,  0.00000,  0.00000,1,   0.00,   1,1.0000,,,,,,,,/* [                                ] */
      15,      16,'1 ',    0.90000E-03,    0.94000E-02,    0.17100    ,    0.00,    0.00,    1.00,  0.00000,  0.00000,  0.00000,  0.00000,1,   0.00,   1,1.0000,,,,,,,,/* [                                ] */
      16,      17,'1 ',    0.70000E-03,    0.89000E-02,    0.13420    ,    0.00,    0.00,    1.00,  0.00000,  0.00000,  0.00000,  0.00000,1,   0.00,   1,1.0000,,,,,,,,/* [                                ] */
      16,      19,'1 ',    0.16000E-02,    0.19500E-01,    0.30400    ,    0.00,    0.00,    1.00,  0.00000,  0.00000,  0.00000,  0.00000,1,   0.00,   1,1.0000,,,,,,,,/* [                                ] */
      16,      21,'1 ',    0.80000E-03,    0.13500E-01,    0.25480    ,    0.00,    0.00,    1.00,  0.00000,  0.00000,  0.00000,  0.00000,1,   0.00,   1,1.0000,,,,,,,,/* [                                ] */
      16,      24,'1 ',    0.30000E-03,    0.59000E-02,    0.68000E-01,    0.00,    0.00,    1.00,  0.00000,  0.00000,  0.00000,  0.00000,1,   0.00,   1,1.0000,,,,,,,,/* [                                ] */
      17,      18,'1 ',    0.70000E-03,    0.82000E-02,    0.13190    ,    0.00,    0.00,    1.00,  0.00000,  0.00000,  0.00000,  0.00000,1,   0.00,   1,1.0000,,,,,,,,/* [                                ] */
      17,      27,'1 ',    0.13000E-02,    0.17300E-01,    0.32160    ,    0.00,    0.00,    1.00,  0.00000,  0.00000,  0.00000,  0.00000,1,   0.00,   1,1.0000,,,,,,,,/* [                                ] */
      21,      22,'1 ',    0.80000E-03,    0.14000E-01,    0.25650    ,    0.00,    0.00,    1.00,  0.00000,  0.00000,  0.00000,  0.00000,1,   0.00,   1,1.0000,,,,,,,,/* [                                ] */
      22,      23,'1 ',    0.60000E-03,    0.96000E-02,    0.18460    ,    0.00,    0.00,    1.00,  0.00000,  0.00000,  0.00000,  0.00000,1,   0.00,   1,1.0000,,,,,,,,/* [                                ] */
      23,      24,'1 ',    0.22000E-02,    0.35000E-01,    0.36100    ,    0.00,    0.00,    1.00,  0.00000,  0.00000,  0.00000,  0.00000,1,   0.00,   1,1.0000,,,,,,,,/* [                                ] */
      25,      26,'1 ',    0.32000E-02,    0.32300E-01,    0.51300    ,    0.00,    0.00,    1.00,  0.00000,  0.00000,  0.00000,  0.00000,1,   0.00,   1,1.0000,,,,,,,,/* [                                ] */
      26,      27,'1 ',    0.14000E-02,    0.14700E-01,    0.23960    ,    0.00,    0.00,    1.00,  0.00000,  0.00000,  0.00000,  0.00000,1,   0.00,   1,1.0000,,,,,,,,/* [                                ] */
      26,      28,'1 ',    0.43000E-02,    0.47400E-01,    0.78020    ,    0.00,    0.00,    1.00,  0.00000,  0.00000,  0.00000,  0.00000,1,   0.00,   1,1.0000,,,,,,,,/* [                                ] */
      26,      29,'1 ',    0.57000E-02,    0.62500E-01,     1.0290    ,    0.00,    0.00,    1.00,  0.00000,  0.00000,  0.00000,  0.00000,1,   0.00,   1,1.0000,,,,,,,,/* [                                ] */
      28,      29,'1 ',    0.14000E-02,    0.15100E-01,    0.24900    ,    0.00,    0.00,    1.00,  0.00000,  0.00000,  0.00000,  0.00000,1,   0.00,   1,1.0000,,,,,,,,/* [                                ] */
0 / END OF BRANCH DATA, BEGIN TRANSFORMER DATA
       2,      30, 0,'1 ',1,1,1,   0.00000,   0.00000, 2,'', 1,   1,1.0000,,,,,,,
   0.00000,   0.01810
1.02500, 0,   0.000,    0.00,    0.00,    0.00,-1,       0,     1.1000    ,    0.90000    ,     1.5000    ,    0.50000    ,  8,  0, 0., 0.
 1.00000, 0.,/* [                                ] */
      31,       6, 0,'1 ',1,1,1,   0.00000,   0.00000, 2,'', 1,   1,1.0000,,,,,,,
   0.00000,   0.02500
0.85714, 0,   0.000,    0.00,    0.00,    0.00, 1,       6,     1.2000    ,    0.80000    ,     1.1700    ,    0.98000    ,  8,  0, 0., 0.
 1.00000, 0.,/* [                                ] */
      10,      32, 0,'1 ',1,1,1,   0.00000,   0.00000, 2,'', 1,   1,1.0000,,,,,,,
   0.00000,   0.02000
1.07000, 0,   0.000,    0.00,    0.00,    0.00,-1,       0,     1.1000    ,    0.90000    ,     1.5000    ,    0.50000    ,  8,  0, 0., 0.
 1.00000, 0.,/* [                                ] */
      12,      11, 0,'1 ',1,1,1,   0.00000,   0.00000, 2,'', 1,   1,1.0000,,,,,,,
   0.00160,   0.04350
1.00600, 0,   0.000,    0.00,    0.00,    0.00,-1,       0,     1.1000    ,    0.90000    ,     1.5000    ,    0.50000    ,  8,  0, 0., 0.
 1.00000, 0.,/* [                                ] */
      12,      13, 0,'1 ',1,1,1,   0.00000,   0.00000, 2,'', 1,   1,1.0000,,,,,,,
   0.00160,   0.04350
1.00600, 0,   0.000,    0.00,    0.00,    0.00,-1,       0,     1.1000    ,    0.90000    ,     1.5000    ,    0.50000    ,  8,  0, 0., 0.
 1.00000, 0.,/* [                                ] */
      19,      20, 0,'1 ',1,1,1,   0.00000,   0.00000, 2,'', 1,   1,1.0000,,,,,,,
   0.00070,   0.01380
1.06000, 0,   0.000,    0.00,    0.00,    0.00,-1,       0,     1.1000    ,    0.90000    ,     1.5000    ,    0.50000    ,  8,  0, 0., 0.
 1.00000, 0.,/* [                                ] */
      19,      33, 0,'1 ',1,1,1,   0.00000,   0.00000, 2,'', 1,   1,1.0000,,,,,,,
   0.00070,   0.01420
1.07000, 0,   0.000,    0.00,    0.00,    0.00,-1,       0,     1.1000    ,    0.90000    ,     1.5000    ,    0.50000    ,  8,  0, 0., 0.
 1.00000, 0.,/* [                                ] */
      20,      34, 0,'1 ',1,1,1,   0.00000,   0.00000, 2,'', 1,   1,1.0000,,,,,,,
   0.00090,   0.01800
1.00900, 0,   0.000,    0.00,    0.00,    0.00,-1,       0,     1.1000    ,    0.90000    ,     1.5000    ,    0.50000    ,  8,  0, 0., 0.
 1.00000, 0.,/* [                                ] */
      22,      35, 0,'1 ',1,1,1,   0.00000,   0.00000, 2,'', 1,   1,1.0000,,,,,,,
   0.00000,   0.01430
1.02500, 0,   0.000,    0.00,    0.00,    0.00,-1,       0,     1.1000    ,    0.90000    ,     1.5000    ,    0.50000    ,  8,  0, 0., 0.
 1.00000, 0.,/* [                                ] */
      23,      36, 0,'1 ',1,1,1,   0.00000,   0.00000, 2,'', 1,   1,1.0000,,,,,,,
   0.00050,   0.02720
1.00000, 0,   0.000,    0.00,    0.00,    0.00,-1,       0,     1.1000    ,    0.90000    ,     1.5000    ,    0.50000    ,  8,  0, 0., 0.
 1.00000, 0.,/* [                                ] */
      25,      37, 0,'1 ',1,1,1,   0.00000,   0.00000, 2,'', 1,   1,1.0000,,,,,,,
   0.00060,   0.02320
1.02500, 0,   0.000,    0.00,    0.00,    0.00,-1,       0,     1.1000    ,    0.90000    ,     1.5000    ,    0.50000    ,  8,  0, 0., 0.
 1.00000, 0.,/* [                                ] */
      29,      38, 0,'1 ',1,1,1,   0.00000,   0.00000, 2,'', 1,   1,1.0000,,,,,,,
   0.00080,   0.01560
1.02500, 0,   0.000,    0.00,    0.00,    0.00,-1,       0,     1.1000    ,    0.90000    ,     1.5000    ,    0.50000    ,  8,  0, 0., 0.
 1.00000, 0.,/* [                                ] */
0 / END OF TRANSFORMER DATA, BEGIN AREA DATA
    1,     0,     0.00,     1.00,'1           '
0 / END OF AREA DATA, BEGIN TWO-TERMINAL DC DATA
0 / END OF TWO-TERMINAL DC DATA, BEGIN VSC DC LINE DATA
0 / END OF VSC DC LINE DATA, BEGIN SWITCHED SHUNT DATA
 0 / END SWITCHED SHUNT DATA, BEGIN IMPEDANCE CORRECTION TABLE DATA
0 / END OF IMPEDANCE CORRECTION TABLE DATA, BEGIN MULTI-TERMINAL DC DATA
0 / END OF MULTI-TERMINAL DC DATA, BEGIN MULTI-SECTION LINE DATA
0 / END OF MULTI-SECTION LINE DATA, BEGIN ZONE DATA
    1,'1           '
0 / END OF ZONE DATA, BEGIN INTER-AREA TRANSFER DATA
0 / END OF INTER-AREA TRANSFER DATA, BEGIN OWNER DATA
   1, '1           '
0 / END OF OWNER DATA, BEGIN FACTS DEVICE DATA
0 / END OF FACTS DATA
 0 /
